EVs_20kW/Output_EVs_20kW_3ph/output_current_1440.csv
# Output_EVs_20kW_3ph\output_current_1440.csv run at 2000-01-02 00:00:00 EST on 907 links
link_name,currA_mag,currA_angle,currB_mag,currB_angle,currC_mag,currC_angle
Source_Impedance,0.515664,-0.229658,0.516826,3.785368,0.436710,1.775446
TR1,0.515664,-0.229658,0.516826,3.785368,0.436710,1.775446
LINE1,11.522942,-0.840824,15.645916,3.348258,11.577187,1.252837
LINE2,11.522942,-0.840824,15.645916,3.348258,11.577187,1.252837
LINE3,11.522942,-0.840824,15.645916,3.348258,11.577187,1.252837
LINE4,11.522942,-0.840824,15.645916,3.348258,11.577187,1.252837
LINE5,11.522942,-0.840824,15.645916,3.348258,11.577187,1.252837
LINE6,11.522942,-0.840824,15.645916,3.348258,11.577187,1.252837
LINE7,11.522942,-0.840824,15.645916,3.348258,11.577187,1.252837
LINE8,11.522942,-0.840824,15.645916,3.348258,11.577187,1.252837
LINE9,11.522942,-0.840824,15.645916,3.348258,11.577187,1.252837
LINE10,11.522942,-0.840824,15.645916,3.348258,11.577187,1.252837
LINE11,11.522942,-0.840824,15.645916,3.348258,11.577187,1.252837
LINE12,11.522942,-0.840824,15.645916,3.348258,11.577187,1.252837
LINE13,11.522942,-0.840824,15.645916,3.348258,11.577187,1.252837
LINE14,11.522942,-0.840824,15.645916,3.348258,11.577187,1.252837
LINE15,0.000000,-1.335126,0.000000,-0.840624,0.000000,1.546407
LINE16,11.522942,-0.840824,15.645916,3.348258,11.577187,1.252837
LINE17,0.000000,4.687457,0.000000,-0.743762,0.000000,1.549221
LINE18,11.522942,-0.840824,15.645916,3.348258,11.577187,1.252837
LINE19,0.000000,3.704663,0.000000,-0.346682,0.000000,1.551534
LINE20,11.522942,-0.840824,15.645916,3.348258,11.577187,1.252837
LINE21,0.000000,3.902059,0.000000,-0.743762,0.000000,1.546422
LINE22,11.522942,-0.840824,15.645916,3.348258,11.577187,1.252837
LINE23,0.000000,-1.215222,0.000000,4.687457,0.000000,1.556533
LINE24,11.522942,-0.840824,15.645916,3.348258,11.577187,1.252837
LINE25,0.000000,-0.612935,0.000000,4.306951,0.000000,1.556983
LINE26,1.599454,-0.841119,0.000000,-0.162058,0.000000,1.583879
LINE27,9.923489,-0.840777,15.645916,3.348258,11.577187,1.252837
LINE28,0.000000,-0.810330,0.000000,4.147038,0.000000,1.554816
LINE29,0.150335,-0.841128,0.000000,-0.593725,0.000000,2.328836
LINE30,1.449119,-0.841118,0.000000,-0.276312,0.000000,1.584624
LINE31,9.923489,-0.840777,15.645916,3.348258,11.577187,1.252837
LINE32,0.000000,-0.488580,0.000000,4.142593,0.000000,1.558475
LINE33,0.150335,-0.841128,0.000000,3.091927,0.000000,-1.538726
LINE34,1.449119,-0.841118,0.000000,0.545004,0.000000,1.574607
LINE35,0.000000,2.857330,0.472259,3.347727,0.000000,1.546192
LINE36,9.923489,-0.840777,15.173657,3.348275,11.577187,1.252837
LINE37,0.000000,-0.612935,0.000000,4.263263,0.000000,1.558247
LINE38,1.449119,-0.841118,0.000000,-1.000044,0.000000,1.614933
LINE39,0.000000,2.762788,0.234040,3.347728,0.000000,1.549988
LINE40,0.000000,2.265037,0.238219,3.347727,0.000000,2.321275
LINE41,9.923489,-0.840777,15.173657,3.348275,11.577187,1.252837
LINE42,0.000000,2.298012,0.000000,-0.059049,0.000000,2.124293
LINE43,0.000000,-0.810330,0.000000,4.687457,0.000000,1.551296
LINE44,1.449119,-0.841118,0.000000,3.186511,0.000000,1.622400
LINE45,0.000000,2.455639,0.234040,3.347728,0.000000,1.609799
LINE46,0.000000,3.421969,0.238219,3.347727,0.000000,1.458989
LINE47,9.923489,-0.840777,15.173657,3.348275,11.577187,1.252837
LINE48,0.000000,2.396668,0.000000,-0.053005,0.000000,2.585736
LINE49,0.000000,4.687457,0.000000,-0.920987,0.000000,1.550442
LINE50,1.449119,-0.841118,0.000000,1.575727,0.000000,4.680896
LINE51,0.000000,2.607796,0.234040,3.347728,0.000000,1.648809
LINE52,9.923489,-0.840777,15.173657,3.348275,11.577187,1.252837
LINE53,0.000000,2.509159,0.000000,2.443853,0.000000,1.258759
LINE54,0.000000,2.408799,0.000000,0.045212,0.000000,1.932350
LINE55,0.000000,-1.132081,0.000000,-1.215222,0.000000,1.557778
LINE56,1.449119,-0.841118,0.000000,2.420553,0.000000,1.630902
LINE57,0.000000,2.055847,0.234040,3.347728,0.000000,1.560377
LINE58,9.923489,-0.840777,15.173657,3.348275,11.577187,1.252837
LINE59,0.000000,2.823895,0.000000,2.823895,0.000000,0.174817
LINE60,0.000000,2.383996,0.000000,-0.133525,0.000000,1.677046
LINE61,0.000000,-1.076582,0.000000,-1.350750,0.000000,1.565454
LINE62,1.449119,-0.841118,0.000000,1.069474,0.000000,-1.047321
LINE63,0.000000,2.380356,0.234040,3.347728,0.000000,4.695381
LINE64,7.759355,-0.840737,15.173657,3.348275,11.577187,1.252837
LINE65,2.164133,-0.840919,0.000000,0.649946,0.000000,-1.560969
LINE66,0.000000,1.328408,0.000000,1.270245,0.000000,-0.942498
LINE67,0.000000,2.263945,0.000000,-0.120010,0.000000,1.947282
LINE68,0.000000,-0.719670,0.000000,-1.215222,0.000000,1.560085
LINE69,1.449119,-0.841118,0.000000,2.177720,0.000000,4.696335
LINE70,0.000000,1.593173,0.234040,3.347728,0.000000,4.669594
LINE71,7.759355,-0.840737,15.173657,3.348275,11.577187,1.252837
LINE72,0.204709,-0.840926,0.000000,0.794113,0.000000,4.281925
LINE73,1.959424,-0.840918,0.000000,2.020547,0.000000,1.662684
LINE74,0.000000,1.676079,0.000000,2.966375,0.000000,2.871604
LINE75,0.000000,2.305651,0.000000,-0.055778,0.000000,1.726299
LINE76,0.000000,-0.850309,0.000000,-1.092885,0.000000,1.568722
LINE77,0.000000,1.061755,0.234040,3.347728,0.000000,4.678179
LINE78,7.759355,-0.840737,15.173657,3.348275,11.577187,1.252837
LINE79,0.000000,0.541290,0.000000,1.839311,0.000000,2.069979
LINE80,0.000000,2.262342,0.000000,-0.068041,0.000000,1.574891
LINE81,0.000000,-0.769257,0.000000,-1.161058,0.000000,1.567578
LINE82,0.000000,0.202290,0.234040,3.347728,0.000000,1.569290
LINE83,7.759355,-0.840737,15.173657,3.348275,11.577187,1.252837
LINE84,0.000000,2.154612,0.000000,2.154612,0.000000,0.072496
LINE85,0.000000,2.249378,0.000000,-0.075000,0.000000,1.570393
LINE86,0.000000,-0.704346,0.000000,-1.155886,0.000000,1.570217
LINE87,7.759355,-0.840737,15.173657,3.348275,11.577187,1.252837
LINE88,0.000000,4.411755,0.000000,1.472958,0.000000,-1.523002
LINE89,0.000000,2.209614,0.000000,-0.122592,0.000000,1.721894
LINE90,0.000000,-0.668433,0.000000,-1.044073,0.000000,1.570762
LINE91,7.759355,-0.840737,15.173657,3.348275,11.577187,1.252837
LINE92,0.000000,2.489430,0.000000,0.023204,0.000000,1.933030
LINE93,0.000000,4.687457,0.000000,-1.132081,0.000000,4.690631
LINE94,7.759355,-0.840737,15.173657,3.348275,11.577187,1.252837
LINE95,0.000000,2.432352,0.000000,-0.020476,0.000000,2.485816
LINE96,0.000000,3.116661,0.000000,-0.810330,0.000000,-1.561318
LINE97,7.759355,-0.840737,15.173657,3.348275,11.577187,1.252837
LINE98,0.000000,2.208250,0.000000,-0.095295,0.000000,2.715060
LINE99,0.000000,1.545864,0.000000,4.687457,0.000000,3.116661
LINE100,7.759355,-0.840737,15.173657,3.348275,11.577187,1.252837
LINE101,0.000000,2.262534,0.000000,0.217188,0.000000,2.832904
LINE102,0.000000,0.000000,0.000000,0.000000,0.000000,-0.024932
LINE103,0.217242,-0.840887,1.284549,3.348055,0.443143,1.252882
LINE104,7.542113,-0.840733,13.889108,3.348295,11.134043,1.252835
LINE105,0.000000,2.311767,0.000000,0.081556,0.000000,2.798426
LINE106,0.217242,-0.840887,1.284549,3.348055,0.443143,1.252882
LINE107,7.542113,-0.840733,13.889108,3.348295,11.134043,1.252835
LINE108,0.000000,2.289408,0.000000,0.207756,0.000000,3.409563
LINE109,0.217242,-0.840887,1.284549,3.348055,0.443143,1.252882
LINE110,7.542113,-0.840733,13.889108,3.348295,11.134043,1.252835
LINE111,0.000000,2.300022,0.000000,0.174209,0.000000,3.146141
LINE112,0.217242,-0.840887,1.284549,3.348055,0.443143,1.252882
LINE113,7.542113,-0.840733,13.889108,3.348295,11.134043,1.252835
LINE114,0.000000,2.298172,0.000000,0.174710,0.000000,3.138249
LINE115,0.217242,-0.840887,1.284549,3.348055,0.443143,1.252882
LINE116,0.213074,-0.840861,4.550945,3.348225,2.751906,1.252853
LINE117,7.329039,-0.840729,9.338163,3.348329,8.382137,1.252829
LINE118,0.000000,2.333660,0.000000,0.188537,0.000000,3.091670
LINE119,0.217242,-0.840887,1.284549,3.348055,0.443143,1.252882
LINE120,0.000000,3.061162,0.000000,0.585794,0.000000,4.691656
LINE121,0.213074,-0.840861,4.550945,3.348225,2.751906,1.252853
LINE122,7.329039,-0.840729,9.338163,3.348329,8.382137,1.252829
LINE123,0.000000,2.288247,0.000000,0.179305,0.000000,2.807404
LINE124,0.217242,-0.840887,1.284549,3.348055,0.443143,1.252882
LINE125,0.000000,2.825204,0.000000,0.837238,0.000000,4.683551
LINE126,0.213074,-0.840861,4.550945,3.348225,2.751906,1.252853
LINE127,7.329039,-0.840729,9.338163,3.348329,8.382137,1.252829
LINE128,0.000000,2.337281,0.000000,0.182316,0.000000,2.796011
LINE129,0.217242,-0.840887,1.284549,3.348055,0.443143,1.252882
LINE130,0.000000,2.992306,0.000000,0.760466,0.000000,1.573689
LINE131,0.213074,-0.840861,0.000000,3.109003,0.000000,1.506896
LINE132,0.000000,3.460377,4.550945,3.348225,2.751906,1.252853
LINE133,7.329039,-0.840729,9.338163,3.348329,8.382137,1.252829
LINE134,0.000000,2.344247,0.000000,0.201236,0.000000,2.856596
LINE135,0.217242,-0.840887,1.284549,3.348055,0.443143,1.252882
LINE136,0.000000,2.919265,0.000000,2.220605,0.000000,1.661556
LINE137,0.213074,-0.840861,0.000000,3.092488,0.000000,1.515568
LINE138,0.000000,3.404385,4.550945,3.348225,2.751906,1.252853
LINE139,7.329039,-0.840729,9.338163,3.348329,8.382137,1.252829
LINE140,0.000000,2.368218,0.000000,0.201193,0.000000,2.911148
LINE141,0.217242,-0.840887,1.284549,3.348055,0.443143,1.252882
LINE142,0.000000,3.033520,0.000000,2.653013,0.000000,1.598063
LINE143,0.213074,-0.840861,0.000000,3.091103,0.000000,1.532285
LINE144,0.000000,3.447014,4.550945,3.348225,2.751906,1.252853
LINE145,7.329039,-0.840729,9.338163,3.348329,8.382137,1.252829
LINE146,0.000000,2.315792,0.000000,0.200672,0.000000,2.024096
LINE147,0.217242,-0.840887,1.284549,3.348055,0.443143,1.252882
LINE148,0.000000,3.116661,0.000000,2.871682,0.000000,1.606824
LINE149,0.213074,-0.840861,0.000000,3.032889,0.000000,1.527108
LINE150,0.000000,3.532038,0.000000,3.603843,2.751906,1.252853
LINE151,0.000000,2.820131,4.550945,3.348225,0.000000,1.287818
LINE152,7.329039,-0.840729,9.338163,3.348329,8.382137,1.252829
LINE153,0.000000,2.639488,0.000000,0.265420,0.000000,2.464200
LINE154,0.217242,-0.840887,1.284549,3.348055,0.443143,1.252882
LINE155,0.000000,3.361639,0.000000,2.951512,0.000000,1.582225
LINE156,0.213074,-0.840861,0.000000,3.019704,0.000000,1.525787
LINE157,0.000000,3.587053,0.000000,3.612046,2.751906,1.252853
LINE158,0.000000,2.938874,4.550945,3.348225,0.000000,1.199163
LINE159,7.329039,-0.840729,9.338163,3.348329,8.382137,1.252829
LINE160,0.000000,1.043961,0.000000,0.747383,0.000000,1.524105
LINE161,0.000000,3.274283,0.878692,3.348059,0.000000,4.661937
LINE162,0.217242,-0.840887,0.405857,3.348047,0.443143,1.252882
LINE163,0.000000,3.361639,0.000000,2.919265,0.000000,4.661584
LINE164,0.213074,-0.840861,0.000000,3.043144,0.000000,1.523536
LINE165,0.000000,3.617733,0.000000,3.620475,2.751906,1.252853
LINE166,0.000000,2.474847,4.550945,3.348225,0.000000,1.200768
LINE167,7.329039,-0.840729,9.338163,3.348329,8.382137,1.252829
LINE168,0.000000,1.920954,0.000000,-0.512268,0.000000,-0.743208
LINE169,0.000000,3.189158,0.878692,3.348059,0.000000,4.692533
LINE170,0.217242,-0.840887,0.405857,3.348047,0.443143,1.252882
LINE171,0.000000,2.871682,0.000000,3.116661,0.000000,-1.560586
LINE172,0.213074,-0.840861,0.000000,3.004701,0.000000,1.515078
LINE173,0.000000,3.380685,0.000000,3.495355,0.000000,1.606114
LINE174,0.000000,-0.524436,0.000000,-1.153085,2.751906,1.252853
LINE175,0.000000,2.134018,4.550945,3.348225,0.000000,-1.325924
LINE176,7.329039,-0.840729,9.338163,3.348329,8.382137,1.252829
LINE177,0.000000,-1.115643,0.878692,3.348059,0.000000,1.625378
LINE178,0.217242,-0.840887,0.405857,3.348047,0.000000,1.386237
LINE179,0.000000,0.990411,0.000000,3.763148,0.443143,1.252882
LINE180,0.000000,3.116661,0.000000,3.116661,0.000000,1.568322
LINE181,0.213074,-0.840861,0.000000,2.941068,0.000000,1.493530
LINE182,0.000000,3.277318,0.000000,3.466737,0.000000,1.566356
LINE183,0.000000,-0.514755,0.000000,-1.196359,2.751906,1.252853
LINE184,0.000000,2.264992,4.550945,3.348225,0.000000,-1.360720
LINE185,7.329039,-0.840729,9.338163,3.348329,8.382137,1.252829
LINE186,0.217242,-0.840887,0.405857,3.348047,0.000000,1.440022
LINE187,0.000000,1.054477,0.000000,3.772779,0.443143,1.252882
LINE188,0.000000,2.951512,0.000000,2.653013,0.000000,1.551235
LINE189,0.213074,-0.840861,0.000000,2.914504,0.000000,1.484473
LINE190,0.000000,4.201136,0.000000,-1.330817,0.000000,2.425967
LINE191,0.000000,2.236374,0.000000,3.619200,0.000000,1.915438
LINE192,0.000000,-0.518614,0.000000,-1.376752,2.751906,1.252853
LINE193,0.000000,2.198358,4.550945,3.348225,0.000000,-1.217774
LINE194,7.329039,-0.840729,9.338163,3.348329,8.382137,1.252829
LINE195,0.217242,-0.840887,0.405857,3.348047,0.000000,1.500585
LINE196,0.000000,2.752777,0.000000,0.417083,0.221571,1.252882
LINE197,0.000000,0.900841,0.000000,3.724162,0.221572,1.252882
LINE198,0.000000,2.951512,0.000000,2.653013,0.000000,1.553677
LINE199,0.213074,-0.840861,0.000000,2.892662,0.000000,1.474671
LINE200,0.000000,1.099753,0.000000,3.772710,0.000000,0.770060
LINE201,0.000000,3.260766,0.000000,3.369410,0.000000,1.277321
LINE202,0.000000,-0.518531,0.000000,-1.146986,2.751906,1.252853
LINE203,0.000000,2.029044,4.550945,3.348225,0.000000,-0.865421
LINE204,7.329039,-0.840729,9.338163,3.348329,8.382137,1.252829
LINE205,0.217242,-0.840887,0.000000,0.256482,0.000000,1.706052
LINE206,0.000000,1.407484,0.405857,3.348047,0.000000,1.938795
LINE207,0.000000,3.758675,0.000000,3.391654,0.221571,1.252882
LINE208,0.000000,1.358386,0.000000,4.329839,0.221572,1.252882
LINE209,0.000000,1.545864,0.000000,0.000000,0.000000,1.573201
LINE210,0.213074,-0.840861,0.000000,2.894534,0.000000,1.493235
LINE211,0.000000,0.907561,0.000000,4.067754,0.000000,-0.633785
LINE212,0.000000,-0.475472,0.000000,-0.701484,2.751906,1.252853
LINE213,0.000000,2.132865,4.550945,3.348225,0.000000,-1.299334
LINE214,7.329039,-0.840729,9.338163,3.348329,8.382137,1.252829
LINE215,0.217242,-0.840887,0.000000,0.502127,0.000000,3.975569
LINE216,0.000000,1.552967,0.405857,3.348047,0.000000,1.962186
LINE217,0.000000,1.467607,0.000000,3.640239,0.221572,1.252882
LINE218,0.000000,0.000000,0.000000,0.000000,0.000000,3.116661
LINE219,0.213074,-0.840861,0.000000,2.901464,0.000000,1.486270
LINE220,0.000000,0.283568,0.000000,3.985797,0.000000,-1.429460
LINE221,0.000000,-0.465259,0.000000,-0.872709,2.751906,1.252853
LINE222,0.000000,2.163397,4.550945,3.348225,0.000000,-0.038487
LINE223,7.329039,-0.840729,9.338163,3.348329,8.382137,1.252829
LINE224,0.217242,-0.840887,0.000000,0.151044,0.000000,4.579422
LINE225,0.000000,1.140086,0.405857,3.348047,0.000000,2.282789
LINE226,0.000000,0.453392,0.000000,3.851505,0.221572,1.252882
LINE227,0.213074,-0.840861,0.000000,3.035036,0.000000,1.502529
LINE228,0.000000,0.476843,0.000000,3.748922,0.000000,-1.069134
LINE229,0.000000,-0.495657,0.000000,-0.835752,2.751906,1.252853
LINE230,0.000000,1.930965,4.550945,3.348225,0.000000,-0.230973
LINE231,7.329039,-0.840729,9.338163,3.348329,8.382137,1.252829
LINE232,0.000000,-0.155581,0.405857,3.348047,0.000000,1.678717
LINE233,0.000000,-0.624803,0.000000,3.756063,0.000000,-0.629326
LINE234,0.000000,0.310855,0.000000,3.912657,0.221572,1.252882
LINE235,0.213074,-0.840861,0.000000,3.011430,0.000000,1.518226
LINE236,0.000000,0.348541,0.000000,3.775570,0.000000,-0.634963
LINE237,0.000000,-0.595715,0.000000,-1.143429,2.751906,1.252853
LINE238,0.000000,2.492929,4.550945,3.348225,0.000000,-1.254238
LINE239,7.329039,-0.840729,9.338163,3.348329,8.382137,1.252829
LINE240,0.000000,-0.753983,0.405857,3.348047,0.000000,1.760173
LINE241,0.000000,0.699835,0.000000,4.429811,0.221572,1.252882
LINE242,0.213074,-0.840861,0.000000,3.005001,0.000000,1.544549
LINE243,0.000000,-0.589280,0.000000,3.476541,0.000000,-0.972663
LINE244,0.000000,-0.492842,0.000000,-1.124189,2.751906,1.252853
LINE245,0.000000,2.847498,4.550945,3.348225,0.000000,-1.312663
LINE246,7.329039,-0.840729,9.338163,3.348329,8.382137,1.252829
LINE247,0.000000,2.846833,0.200837,3.348047,0.000000,-1.563245
LINE248,0.000000,2.508819,0.205021,3.348047,0.000000,1.858319
LINE249,0.000000,1.527137,0.000000,4.569113,0.221572,1.252882
LINE250,0.213074,-0.840861,0.000000,2.994625,0.000000,-1.433846
LINE251,0.000000,0.269596,0.000000,3.679698,0.000000,-0.598818
LINE252,0.000000,-0.480398,0.000000,-0.995393,2.751906,1.252853
LINE253,0.000000,2.746946,4.550945,3.348225,0.000000,-1.334170
LINE254,0.647721,-0.840833,0.000000,0.666754,0.000000,4.675337
LINE255,6.681319,-0.840719,9.338163,3.348329,8.382137,1.252829
LINE256,0.000000,0.482612,0.000000,0.669317,0.221572,1.252882
LINE257,0.213074,-0.840861,0.000000,3.008692,0.000000,1.552930
LINE258,0.000000,0.507129,0.000000,3.479853,0.000000,-0.855024
LINE259,0.000000,-0.557318,0.000000,-0.936524,2.751906,1.252853
LINE260,0.000000,3.084133,4.550945,3.348225,0.000000,-1.392801
LINE261,0.647721,-0.840833,0.000000,0.682867,0.000000,4.674723
LINE262,6.681319,-0.840719,9.338163,3.348329,8.382137,1.252829
LINE263,0.000000,4.047549,0.000000,1.925535,0.221572,1.252882
LINE264,0.213074,-0.840861,0.000000,2.427557,0.000000,-1.300493
LINE265,0.000000,-0.640989,0.000000,3.720025,0.000000,1.044984
LINE266,0.000000,-0.588529,0.000000,-0.854745,2.751906,1.252853
LINE267,0.000000,3.873484,4.362567,3.348226,0.000000,-1.542851
LINE268,0.000000,2.984880,0.188378,3.348194,0.000000,-1.042906
LINE269,0.647721,-0.840833,0.000000,0.664253,0.000000,4.674056
LINE270,0.000000,-0.125655,0.000000,3.802954,0.209134,1.252817
LINE271,6.681319,-0.840719,9.338163,3.348329,8.173003,1.252829
LINE272,0.213074,-0.840861,0.000000,1.629307,0.000000,1.251106
LINE273,0.000000,1.154154,0.000000,-1.181718,0.000000,4.234613
LINE274,0.000000,-0.234556,0.000000,-1.164028,2.751906,1.252853
LINE275,0.000000,-1.042093,4.362567,3.348226,0.000000,-1.541983
LINE276,0.000000,3.266317,0.188378,3.348194,0.000000,0.571370
LINE277,0.647721,-0.840833,0.000000,0.718993,0.000000,4.673960
LINE278,0.000000,-0.141799,0.000000,3.824052,0.209134,1.252817
LINE279,6.681319,-0.840719,9.338163,3.348329,8.173003,1.252829
LINE280,0.213074,-0.840861,0.000000,-0.671354,0.000000,1.593767
LINE281,0.000000,0.181381,0.000000,4.531963,0.000000,-0.221524
LINE282,0.000000,-0.582069,0.000000,-0.563987,2.751906,1.252853
LINE283,0.000000,3.073847,0.188378,3.348194,0.000000,-1.505626
LINE284,0.647721,-0.840833,0.000000,0.650640,0.000000,4.679891
LINE285,0.000000,-0.253545,0.000000,3.692694,0.209134,1.252817
LINE286,1.826530,-0.840684,4.650102,3.348311,1.179766,1.252729
LINE287,4.854788,-0.840732,4.688061,3.348347,6.993237,1.252846
LINE288,0.213074,-0.840861,0.000000,0.542775,0.000000,-1.322429
LINE289,0.000000,-1.396387,0.000000,3.853995,0.000000,-0.259947
LINE290,0.000000,2.309611,0.000000,-0.116665,0.225834,1.252846
LINE291,0.000000,4.601226,0.000000,-0.204480,2.526072,1.252853
LINE292,0.000000,2.909909,0.188378,3.348194,0.000000,-1.498499
LINE293,0.647721,-0.840833,0.000000,0.677970,0.000000,4.687617
LINE294,0.000000,-0.160456,0.000000,3.596002,0.209134,1.252817
LINE295,1.826530,-0.840684,4.650102,3.348311,1.179766,1.252729
LINE296,4.854788,-0.840732,4.688061,3.348347,6.993237,1.252846
LINE297,0.000000,1.802200,0.000000,4.164156,0.225834,1.252846
LINE298,0.000000,3.316085,0.000000,-0.363957,2.526072,1.252853
LINE299,0.000000,0.926605,0.188378,3.348194,0.000000,-1.545643
LINE300,0.647721,-0.840833,0.000000,0.939560,0.000000,4.678609
LINE301,0.000000,-0.237218,0.000000,3.650022,0.209134,1.252817
LINE302,1.826530,-0.840684,4.650102,3.348311,1.179766,1.252729
LINE303,4.854788,-0.840732,4.688061,3.348347,6.993237,1.252846
LINE304,0.000000,2.292887,0.000000,4.254466,0.225834,1.252846
LINE305,0.000000,3.124913,0.000000,-0.829099,2.526072,1.252853
LINE306,0.000000,1.257132,0.188378,3.348194,0.000000,0.858820
LINE307,0.647721,-0.840833,0.000000,1.184593,0.000000,4.685219
LINE308,0.000000,-0.175409,0.000000,3.721015,0.209134,1.252817
LINE309,1.826530,-0.840684,4.650102,3.348311,1.179766,1.252729
LINE310,4.854788,-0.840732,4.688061,3.348347,6.993237,1.252846
LINE311,0.000000,1.191645,0.000000,-0.238731,0.225834,1.252846
LINE312,0.000000,2.590786,0.000000,0.947500,2.526072,1.252853
LINE313,0.000000,-0.566620,0.188378,3.348194,0.000000,1.218881
LINE314,0.647721,-0.840833,0.000000,1.344293,0.000000,4.678045
LINE315,0.000000,-0.091617,0.000000,3.386996,0.209134,1.252817
LINE316,0.259094,-0.840799,0.000000,4.695513,0.000000,1.079203
LINE317,1.567436,-0.840665,4.650102,3.348311,1.179766,1.252729
LINE318,4.854788,-0.840732,4.688061,3.348347,6.993237,1.252846
LINE319,0.000000,2.171602,0.000000,3.952645,0.225834,1.252846
LINE320,0.000000,-0.073782,0.000000,0.251656,2.526072,1.252853
LINE321,0.647721,-0.840833,0.000000,1.551272,0.000000,4.681610
LINE322,0.000000,1.972125,0.000000,3.268073,0.209134,1.252817
LINE323,0.259094,-0.840799,0.000000,4.431521,0.000000,1.040765
LINE324,1.567436,-0.840665,4.650102,3.348311,1.179766,1.252729
LINE325,4.854788,-0.840732,4.688061,3.348347,6.993237,1.252846
LINE326,0.000000,-0.013354,0.000000,2.221873,2.526072,1.252853
LINE327,0.647721,-0.840833,0.000000,0.961220,0.000000,4.688555
LINE328,0.000000,0.147941,0.000000,3.622220,0.209134,1.252817
LINE329,0.259094,-0.840799,0.000000,4.519519,0.000000,1.113341
LINE330,0.000000,3.688596,0.000000,3.034100,0.225878,1.252731
LINE331,1.567436,-0.840665,4.650102,3.348311,0.953889,1.252728
LINE332,4.854788,-0.840732,4.688061,3.348347,6.993237,1.252846
LINE333,0.647721,-0.840833,0.000000,0.901624,0.000000,4.682458
LINE334,0.000000,0.720670,0.000000,3.844404,0.209134,1.252817
LINE335,0.259094,-0.840799,0.000000,4.331064,0.000000,1.116377
LINE336,0.000000,2.881011,0.000000,3.799811,0.225878,1.252731
LINE337,0.000000,0.687531,3.447754,3.348318,0.000000,1.651962
LINE338,1.567436,-0.840665,1.202348,3.348290,0.953889,1.252728
LINE339,4.854788,-0.840732,4.688061,3.348347,6.993237,1.252846
LINE340,0.647721,-0.840833,0.000000,0.975265,0.000000,4.680572
LINE341,0.000000,-0.058190,0.000000,3.465442,0.209134,1.252817
LINE342,0.142084,-0.840799,0.000000,-1.067832,0.000000,4.684137
LINE343,0.117010,-0.840799,0.000000,4.288775,0.000000,1.106490
LINE344,0.000000,0.679730,3.447754,3.348318,0.000000,1.650379
LINE345,1.567436,-0.840665,1.202348,3.348290,0.953889,1.252728
LINE346,4.854788,-0.840732,4.688061,3.348347,6.993237,1.252846
LINE347,0.647721,-0.840833,0.000000,1.465255,0.000000,4.684866
LINE348,0.142084,-0.840799,0.000000,0.611420,0.000000,-1.531099
LINE349,0.117010,-0.840799,0.000000,4.575740,0.000000,0.212843
LINE350,0.000000,0.826108,3.447754,3.348318,0.000000,1.652828
LINE351,1.567436,-0.840665,1.202348,3.348290,0.953889,1.252728
LINE352,4.854788,-0.840732,4.688061,3.348347,6.993237,1.252846
LINE353,0.647721,-0.840833,0.000000,3.028281,0.000000,4.660953
LINE354,0.117010,-0.840799,0.000000,4.348213,0.000000,-1.229669
LINE355,0.000000,1.340817,3.447754,3.348318,0.000000,1.665970
LINE356,1.567436,-0.840665,1.202348,3.348290,0.953889,1.252728
LINE357,4.854788,-0.840732,4.688061,3.348347,6.993237,1.252846
LINE358,0.647721,-0.840833,0.000000,3.221976,0.000000,4.681821
LINE359,0.117010,-0.840799,0.000000,3.508340,0.000000,-1.398289
LINE360,0.000000,1.565930,3.447754,3.348318,0.000000,1.630863
LINE361,1.567436,-0.840665,1.202348,3.348290,0.953889,1.252728
LINE362,4.854788,-0.840732,4.688061,3.348347,6.993237,1.252846
LINE363,0.647721,-0.840833,0.000000,3.832832,0.000000,4.643792
LINE364,0.117010,-0.840799,0.000000,4.614678,0.000000,-1.455515
LINE365,0.000000,1.045401,3.447754,3.348318,0.000000,1.573821
LINE366,1.567436,-0.840665,1.202348,3.348290,0.953889,1.252728
LINE367,4.854788,-0.840732,4.688061,3.348347,6.993237,1.252846
LINE368,0.647721,-0.840833,0.000000,-1.060639,0.000000,1.649345
LINE369,0.117010,-0.840799,0.000000,-0.647998,0.000000,-1.514540
LINE370,0.000000,2.210432,3.447754,3.348318,0.000000,1.637195
LINE371,1.567436,-0.840665,1.202348,3.348290,0.953889,1.252728
LINE372,4.854788,-0.840732,4.688061,3.348347,6.993237,1.252846
LINE373,0.647721,-0.840833,0.000000,-0.212505,0.000000,1.991324
LINE374,0.117010,-0.840799,0.000000,3.754993,0.000000,-1.362611
LINE375,0.000000,1.524038,3.447754,3.348318,0.000000,1.682350
LINE376,1.567436,-0.840665,1.202348,3.348290,0.953889,1.252728
LINE377,4.854788,-0.840732,4.688061,3.348347,4.884516,1.252838
LINE378,0.000000,-0.151699,0.000000,1.386702,2.108721,1.252865
LINE379,0.647721,-0.840833,0.000000,0.189602,0.000000,4.668847
LINE380,0.117010,-0.840799,0.000000,0.241163,0.000000,-1.567269
LINE381,0.000000,2.581864,3.447754,3.348318,0.000000,1.722576
LINE382,1.567436,-0.840665,1.202348,3.348290,0.953889,1.252728
LINE383,4.854788,-0.840732,4.688061,3.348347,4.884516,1.252838
LINE384,0.000000,-0.817477,0.000000,3.455737,2.108721,1.252865
LINE385,0.000000,0.682033,0.000000,0.606990,0.000000,4.662570
LINE386,0.647721,-0.840833,0.000000,0.346409,0.000000,-1.540485
LINE387,0.117010,-0.840799,0.000000,0.134309,0.000000,1.574540
LINE388,0.000000,2.284198,3.447754,3.348318,0.000000,1.416657
LINE389,1.567436,-0.840665,1.202348,3.348290,0.953889,1.252728
LINE390,4.854788,-0.840732,4.688061,3.348347,4.884516,1.252838
LINE391,0.000000,-0.787375,0.000000,3.443554,2.108721,1.252865
LINE392,0.000000,0.565496,0.000000,0.582476,0.000000,4.663522
LINE393,0.000000,3.226932,3.447754,3.348318,0.000000,2.175465
LINE394,1.567436,-0.840665,1.202348,3.348290,0.953889,1.252728
LINE395,0.000000,-0.837330,0.000000,2.696164,1.280217,1.252843
LINE396,4.854788,-0.840732,4.688061,3.348347,3.604299,1.252837
LINE397,0.000000,-0.590285,0.000000,3.479330,2.108721,1.252865
LINE398,0.000000,0.470653,0.000000,0.511664,0.000000,4.648507
LINE399,0.000000,2.811763,3.447754,3.348318,0.000000,1.368027
LINE400,1.567436,-0.840665,1.202348,3.348290,0.953889,1.252728
LINE401,0.000000,-0.835926,0.000000,2.323839,1.280217,1.252843
LINE402,4.854788,-0.840732,4.688061,3.348347,3.604299,1.252837
LINE403,0.000000,-0.211813,0.000000,3.823162,2.108721,1.252865
LINE404,0.000000,0.170701,0.000000,1.057496,0.000000,4.598986
LINE405,0.000000,-0.050045,3.447754,3.348318,0.000000,-1.528241
LINE406,1.567436,-0.840665,1.202348,3.348290,0.953889,1.252728
LINE407,0.000000,-1.045714,0.000000,0.889384,1.280217,1.252843
LINE408,4.854788,-0.840732,4.688061,3.348347,3.604299,1.252837
LINE409,0.000000,-0.707006,0.000000,3.528525,0.000000,0.597382
LINE410,0.000000,0.124678,0.000000,0.459476,2.108721,1.252865
LINE411,0.000000,-0.074112,0.000000,0.725300,0.000000,-1.512561
LINE412,1.567436,-0.840665,1.202348,3.348290,0.953889,1.252728
LINE413,0.000000,-0.757203,0.000000,1.944732,1.280217,1.252843
LINE414,4.854788,-0.840732,4.688061,3.348347,3.604299,1.252837
LINE415,0.000000,-0.658569,0.000000,3.573532,0.000000,0.692888
LINE416,0.000000,0.317712,0.000000,-0.634322,2.108721,1.252865
LINE417,0.000000,1.052377,0.000000,0.833647,0.000000,-1.547995
LINE418,1.567436,-0.840665,1.202348,3.348290,0.953889,1.252728
LINE419,0.000000,-0.474734,0.000000,1.454721,1.280217,1.252843
LINE420,4.854788,-0.840732,4.688061,3.348347,3.604299,1.252837
LINE421,0.000000,-0.734963,0.000000,3.592581,0.000000,0.554521
LINE422,0.000000,0.501436,0.000000,0.136161,2.108721,1.252865
LINE423,0.000000,0.457339,0.000000,0.801945,0.000000,-1.485020
LINE424,1.567436,-0.840665,1.202348,3.348290,0.953889,1.252728
LINE425,0.000000,2.121892,0.000000,0.198791,0.000000,2.705433
LINE426,0.000000,-0.601952,0.000000,1.907483,1.280217,1.252843
LINE427,4.854788,-0.840732,4.688061,3.348347,3.604299,1.252837
LINE428,0.000000,-0.654569,0.000000,3.596652,0.000000,1.036174
LINE429,0.000000,1.047229,0.000000,0.098656,2.108721,1.252865
LINE430,0.000000,0.460433,0.000000,0.793776,0.000000,-1.472839
LINE431,1.567436,-0.840665,1.202348,3.348290,0.953889,1.252728
LINE432,0.000000,2.643834,0.000000,0.574942,0.000000,4.695859
LINE433,0.000000,-0.552848,0.000000,2.002171,1.280217,1.252843
LINE434,4.854788,-0.840732,4.688061,3.348347,3.604299,1.252837
LINE435,0.000000,-0.628646,0.000000,3.665786,0.000000,0.807150
LINE436,0.000000,0.434104,0.000000,-0.087608,2.108721,1.252865
LINE437,0.000000,0.296318,0.000000,0.640678,0.000000,-1.496714
LINE438,1.567436,-0.840665,1.202348,3.348290,0.953889,1.252728
LINE439,0.000000,-0.085470,0.000000,-0.085470,0.000000,0.256546
LINE440,0.000000,-0.563409,0.000000,2.118193,1.280217,1.252843
LINE441,4.854788,-0.840732,4.688061,3.348347,3.604299,1.252837
LINE442,0.000000,-0.707957,0.000000,3.595338,0.000000,1.038151
LINE443,0.000000,2.503825,0.000000,0.567913,2.108721,1.252865
LINE444,0.000000,0.333782,0.000000,0.880017,0.000000,-1.470024
LINE445,1.567436,-0.840665,1.202348,3.348290,0.953889,1.252728
LINE446,0.000000,2.667467,0.000000,0.436699,0.000000,4.525107
LINE447,0.000000,-0.620729,0.000000,1.991093,1.280217,1.252843
LINE448,4.854788,-0.840732,4.688061,3.348347,3.604299,1.252837
LINE449,0.000000,-0.676428,0.000000,3.609121,0.000000,1.090990
LINE450,0.000000,-1.445332,0.000000,1.366833,2.108721,1.252865
LINE451,0.000000,0.411022,0.000000,1.516811,0.000000,-1.474471
LINE452,1.567436,-0.840665,1.202348,3.348290,0.953889,1.252728
LINE453,0.000000,3.377749,0.000000,1.678398,0.000000,2.602818
LINE454,0.000000,-0.692392,0.000000,2.173243,1.280217,1.252843
LINE455,4.854788,-0.840732,4.688061,3.348347,3.604299,1.252837
LINE456,0.000000,-0.730384,0.000000,3.533379,0.000000,1.108384
LINE457,0.000000,2.305896,0.000000,2.305896,2.108721,1.252865
LINE458,0.000000,0.286244,0.000000,1.296416,0.000000,-1.499790
LINE459,1.366821,-0.840661,1.202348,3.348290,0.953889,1.252728
LINE460,0.000000,0.259796,0.000000,2.328456,0.000000,-1.101582
LINE461,0.200615,-0.840688,0.000000,-1.106656,0.000000,4.582546
LINE462,0.000000,-0.736831,0.000000,1.756287,1.280217,1.252843
LINE463,4.854788,-0.840732,4.688061,3.348347,3.604299,1.252837
LINE464,0.000000,-0.606512,0.000000,3.599279,0.000000,1.207526
LINE465,0.000000,2.146019,0.000000,0.882484,0.000000,-1.506690
LINE466,1.366821,-0.840661,1.202348,3.348290,0.953889,1.252728
LINE467,0.000000,1.635024,0.000000,1.635024,0.000000,-1.136746
LINE468,0.000000,-0.201681,0.000000,-0.201681,0.000000,2.996186
LINE469,0.200615,-0.840688,0.000000,-1.128774,0.000000,4.577281
LINE470,0.000000,-0.837511,0.000000,1.046000,1.280217,1.252843
LINE471,4.854788,-0.840732,4.688061,3.348347,3.604299,1.252837
LINE472,0.000000,-0.622005,0.000000,3.452492,0.000000,0.963860
LINE473,0.000000,1.202518,0.000000,0.968995,0.000000,-1.498447
LINE474,1.366821,-0.840661,1.202348,3.348290,0.953889,1.252728
LINE475,0.000000,-0.140380,0.000000,2.939912,0.000000,2.555977
LINE476,0.200615,-0.840688,0.000000,-1.243672,0.000000,4.580677
LINE477,0.000000,-1.182284,0.000000,0.933418,1.280217,1.252843
LINE478,4.854788,-0.840732,4.688061,3.348347,3.604299,1.252837
LINE479,0.000000,-0.741046,0.000000,3.514032,0.000000,1.059304
LINE480,0.000000,1.514250,0.000000,1.039038,0.000000,-1.508778
LINE481,0.965571,-0.840656,1.202348,3.348290,0.953889,1.252728
LINE482,0.000000,1.199852,0.000000,1.199852,0.000000,4.397719
LINE483,0.401250,-0.840674,0.000000,0.444917,0.000000,4.601633
LINE484,0.200615,-0.840688,0.000000,-1.315226,0.000000,4.580669
LINE485,0.000000,-0.756254,0.000000,1.171582,1.280217,1.252843
LINE486,4.854788,-0.840732,4.688061,3.348347,3.604299,1.252837
LINE487,0.000000,-0.671795,0.000000,3.451380,0.000000,0.911175
LINE488,0.000000,-0.240192,0.000000,2.290474,0.000000,-1.403890
LINE489,0.965571,-0.840656,1.202348,3.348290,0.953889,1.252728
LINE490,0.000000,4.511544,0.000000,1.611679,0.000000,-1.349415
LINE491,0.179726,-0.840675,0.000000,0.443818,0.000000,4.573469
LINE492,0.221524,-0.840674,0.000000,-0.419436,0.000000,1.574431
LINE493,0.200615,-0.840688,0.000000,-0.484491,0.000000,4.608412
LINE494,0.000000,-1.499700,0.000000,1.394032,1.280217,1.252843
LINE495,4.854788,-0.840732,4.688061,3.348347,3.604299,1.252837
LINE496,0.000000,-0.683254,0.000000,3.430289,0.000000,0.839184
LINE497,0.000000,-0.546337,0.000000,3.071984,0.000000,1.370488
LINE498,0.965571,-0.840656,1.202348,3.348290,0.953889,1.252728
LINE499,0.000000,2.052626,0.000000,-0.263907,0.000000,1.558529
LINE500,0.179726,-0.840675,0.000000,0.432211,0.000000,4.623985
LINE501,0.221524,-0.840674,0.000000,2.267522,0.000000,3.013478
LINE502,0.200615,-0.840688,0.000000,-0.619952,0.000000,4.626368
LINE503,0.000000,3.028179,0.000000,1.684907,1.280217,1.252843
LINE504,4.854788,-0.840732,4.688061,3.348347,3.604299,1.252837
LINE505,0.000000,-0.727273,0.000000,3.547470,0.000000,0.421626
LINE506,0.000000,2.992017,0.000000,2.992017,0.000000,-0.075346
LINE507,0.965571,-0.840656,1.202348,3.348290,0.953889,1.252728
LINE508,0.000000,3.093309,0.000000,0.136370,0.000000,1.983924
LINE509,0.179726,-0.840675,0.000000,0.507597,0.000000,4.652742
LINE510,0.200615,-0.840688,0.000000,-0.416179,0.000000,4.599428
LINE511,0.000000,1.981860,0.000000,0.292321,1.280217,1.252843
LINE512,0.000000,3.361283,0.762190,3.348210,0.000000,1.603603
LINE513,4.854788,-0.840732,3.925871,3.348374,3.604299,1.252837
LINE514,0.000000,-0.625466,0.000000,3.344939,0.000000,-0.079940
LINE515,0.000000,-0.117161,1.202348,3.348290,0.953889,1.252728
LINE516,0.000000,-0.164129,0.000000,2.998055,0.000000,4.273925
LINE517,0.965571,-0.840656,0.000000,3.973832,0.000000,1.534829
LINE518,0.179726,-0.840675,0.000000,0.458820,0.000000,4.649870
LINE519,0.200615,-0.840688,0.000000,-0.748419,0.000000,4.605238
LINE520,0.000000,3.010145,0.000000,4.250951,1.280217,1.252843
LINE521,0.000000,4.237487,0.762190,3.348210,0.000000,1.543430
LINE522,4.854788,-0.840732,3.925871,3.348374,3.604299,1.252837
LINE523,0.000000,-0.545962,0.000000,3.435244,0.000000,0.732376
LINE524,0.000000,-0.112453,1.202348,3.348290,0.953889,1.252728
LINE525,0.000000,3.769157,0.000000,2.843437,0.000000,-1.183647
LINE526,0.965571,-0.840656,0.000000,3.975320,0.000000,1.530294
LINE527,0.179726,-0.840675,0.000000,0.304330,0.000000,4.588722
LINE528,0.200615,-0.840688,0.000000,4.683668,0.000000,4.581536
LINE529,0.000000,0.703679,0.000000,2.962989,1.280217,1.252843
LINE530,4.854788,-0.840732,3.925871,3.348374,3.604299,1.252837
LINE531,0.000000,-0.808565,0.000000,3.446932,0.000000,1.350401
LINE532,0.000000,-0.113441,1.202348,3.348290,0.953889,1.252728
LINE533,0.000000,1.315993,0.000000,1.315993,0.000000,4.059725
LINE534,0.965571,-0.840656,0.000000,4.029019,0.000000,1.528194
LINE535,0.179726,-0.840675,0.000000,0.367928,0.000000,1.501133
LINE536,0.200615,-0.840688,0.000000,4.598669,0.000000,4.457460
LINE537,0.000000,3.787908,0.000000,-1.278943,1.045937,1.252845
LINE538,0.000000,3.427694,0.000000,2.917522,0.234280,1.252835
LINE539,4.854788,-0.840732,3.925871,3.348374,3.604299,1.252837
LINE540,0.000000,-1.126706,0.000000,3.416151,0.000000,2.050886
LINE541,0.000000,-0.123740,1.202348,3.348290,0.953889,1.252728
LINE542,0.000000,1.614873,0.000000,1.614873,0.000000,-1.194853
LINE543,0.965571,-0.840656,0.000000,3.999763,0.000000,1.534887
LINE544,0.179726,-0.840675,0.000000,0.758545,0.000000,1.538575
LINE545,0.200615,-0.840688,0.000000,4.580762,0.000000,4.199981
LINE546,0.000000,-0.948838,0.000000,-0.732388,1.045937,1.252845
LINE547,4.854788,-0.840732,3.925871,3.348374,3.604299,1.252837
LINE548,0.000000,3.901640,0.000000,3.435171,0.000000,1.864918
LINE549,0.000000,-0.115676,1.202348,3.348290,0.953889,1.252728
LINE550,0.000000,-0.007712,0.000000,4.677284,0.000000,0.626394
LINE551,0.229895,-0.840659,0.000000,4.109657,0.000000,1.564887
LINE552,0.735676,-0.840655,0.000000,2.995089,0.000000,1.353220
LINE553,0.179726,-0.840675,0.000000,0.694405,0.000000,4.702930
LINE554,0.200615,-0.840688,0.000000,4.585078,0.000000,4.403088
LINE555,0.000000,4.100835,0.000000,0.100278,1.045937,1.252845
LINE556,4.854788,-0.840732,3.925871,3.348374,3.604299,1.252837
LINE557,0.000000,3.989407,0.000000,2.082232,0.000000,2.871172
LINE558,0.000000,-0.112823,1.202348,3.348290,0.953889,1.252728
LINE559,0.000000,1.388953,0.000000,0.334504,0.000000,1.573463
LINE560,0.229895,-0.840659,0.000000,4.287024,0.000000,1.570478
LINE561,0.735676,-0.840655,0.000000,4.282518,0.000000,-1.564832
LINE562,0.179726,-0.840675,0.000000,2.136560,0.000000,3.604813
LINE563,0.200615,-0.840688,0.000000,4.373659,0.000000,1.650626
LINE564,4.854788,-0.840732,3.925871,3.348374,3.604299,1.252837
LINE565,0.000000,0.121131,0.000000,2.112121,0.000000,3.916261
LINE566,0.000000,-0.037224,0.201079,3.348284,0.953889,1.252728
LINE567,0.000000,-0.782796,0.000000,0.937590,0.000000,4.692106
LINE568,0.000000,4.478721,1.001269,3.348291,0.000000,4.558152
LINE569,0.229895,-0.840659,0.000000,4.403490,0.000000,1.532643
LINE570,0.200615,-0.840688,0.000000,-1.151960,0.000000,1.749593
LINE571,4.854788,-0.840732,3.925871,3.348374,3.604299,1.252837
LINE572,0.000000,-0.021627,0.201079,3.348284,0.953889,1.252728
LINE573,0.000000,0.189032,0.000000,1.983825,0.000000,0.394867
LINE574,0.000000,4.366212,1.001269,3.348291,0.000000,4.549321
LINE575,0.229895,-0.840659,0.000000,3.480482,0.000000,1.594175
LINE576,0.200615,-0.840688,0.000000,-0.182498,0.000000,2.320965
LINE577,4.854788,-0.840732,3.925871,3.348374,3.604299,1.252837
LINE578,0.000000,3.609072,0.201079,3.348284,0.953889,1.252728
LINE579,0.000000,-0.201681,0.000000,-0.201681,0.000000,2.996186
LINE580,0.000000,0.000245,0.000000,3.487172,0.000000,3.149774
LINE581,0.000000,4.095589,1.001269,3.348291,0.000000,4.569950
LINE582,0.229895,-0.840659,0.000000,3.637764,0.000000,1.585960
LINE583,0.200615,-0.840688,0.000000,-0.245088,0.000000,1.656270
LINE584,0.000000,-0.991462,0.192640,3.348202,0.000000,1.282413
LINE585,4.854788,-0.840732,3.733231,3.348383,3.604299,1.252837
LINE586,0.000000,-0.687065,0.201079,3.348284,0.953889,1.252728
LINE587,0.000000,-1.116593,0.000000,2.800487,0.000000,1.255834
LINE588,0.000000,0.072706,0.000000,3.427196,0.000000,2.603966
LINE589,0.000000,4.285655,1.001269,3.348291,0.000000,4.608334
LINE590,0.229895,-0.840659,0.000000,3.760562,0.000000,4.530068
LINE591,0.200615,-0.840688,0.000000,-0.096533,0.000000,3.893069
LINE592,0.000000,-0.936253,0.192640,3.348202,0.000000,1.289406
LINE593,4.854788,-0.840732,3.733231,3.348383,3.604299,1.252837
LINE594,0.000000,-0.158197,0.201079,3.348284,0.000000,1.571224
LINE595,0.000000,-0.520651,0.000000,3.130437,0.953889,1.252728
LINE596,0.000000,0.013685,0.000000,3.442775,0.000000,3.167583
LINE597,0.000000,-1.411189,1.001269,3.348291,0.000000,4.608375
LINE598,0.229895,-0.840659,0.000000,4.408594,0.000000,1.507803
LINE599,0.200615,-0.840688,0.000000,-0.796230,0.000000,1.461836
LINE600,0.000000,-1.172810,0.192640,3.348202,0.000000,1.368739
LINE601,0.000000,2.567878,0.000000,4.029570,0.188270,1.252829
LINE602,4.854788,-0.840732,3.733231,3.348383,3.416029,1.252837
LINE603,0.000000,3.900528,0.201079,3.348284,0.000000,1.201864
LINE604,0.000000,3.561106,0.000000,0.045836,0.000000,4.521210
LINE605,0.000000,-0.115953,0.000000,2.890200,0.000000,1.461940
LINE606,0.000000,-0.106735,0.000000,2.661773,0.953889,1.252728
LINE607,0.000000,-0.149575,0.000000,-0.149575,0.000000,3.066247
LINE608,0.000000,-0.010939,0.000000,3.567086,0.000000,2.488973
LINE609,0.000000,-1.335816,1.001269,3.348291,0.000000,4.608461
LINE610,0.229895,-0.840659,0.000000,3.258390,0.000000,1.568980
LINE611,0.200615,-0.840688,0.000000,-0.211904,0.000000,1.269135
LINE612,0.000000,-0.928760,0.192640,3.348202,0.000000,1.421825
LINE613,0.000000,-0.804401,0.000000,3.457814,0.188270,1.252829
LINE614,4.854788,-0.840732,3.733231,3.348383,3.416029,1.252837
LINE615,0.000000,-0.531166,0.201079,3.348284,0.000000,1.650230
LINE616,0.000000,0.000000,0.000000,0.000000,0.000000,0.000000
LINE617,0.000000,4.092061,0.000000,-0.984975,0.000000,4.333043
LINE618,0.000000,4.252692,0.000000,2.892725,0.953889,1.252728
LINE619,0.000000,0.141461,0.000000,3.580044,0.000000,3.252748
LINE620,0.000000,4.708002,1.001269,3.348291,0.000000,4.617816
LINE621,0.200615,-0.840688,0.000000,-1.019537,0.000000,4.656677
LINE622,0.000000,-0.873046,0.192640,3.348202,0.000000,1.481729
LINE623,0.000000,1.822018,0.226155,3.348190,0.000000,4.609780
LINE624,4.854788,-0.840732,3.507076,3.348395,3.416029,1.252837
LINE625,0.000000,-0.338465,0.201079,3.348284,0.000000,1.630997
LINE626,0.000000,-0.058556,0.000000,3.366674,0.000000,2.976557
LINE627,0.000000,4.661526,1.001269,3.348291,0.000000,4.629846
LINE628,0.200615,-0.840688,0.000000,-1.440313,0.000000,4.707522
LINE629,0.000000,-1.019471,0.192640,3.348202,0.000000,1.378454
LINE630,0.000000,2.249152,0.226155,3.348190,0.000000,4.586354
LINE631,4.854788,-0.840732,3.507076,3.348395,3.416029,1.252837
LINE632,0.000000,-0.312497,0.201079,3.348284,0.000000,1.634358
LINE633,0.000000,-0.141804,0.000000,3.254909,0.000000,3.776520
LINE634,0.000000,-1.187624,1.001269,3.348291,0.000000,4.627975
LINE635,0.000000,-0.846274,0.192640,3.348202,0.000000,1.442799
LINE636,0.000000,2.019699,0.226155,3.348190,0.000000,4.600696
LINE637,4.854788,-0.840732,3.507076,3.348395,3.416029,1.252837
LINE638,0.000000,0.000000,0.201079,3.348284,0.000000,-0.067519
LINE639,0.000000,-0.237175,0.000000,3.044950,0.000000,3.601762
LINE640,0.000000,-1.069397,1.001269,3.348291,0.000000,4.633033
LINE641,0.000000,-0.722094,0.192640,3.348202,0.000000,1.423590
LINE642,0.000000,0.718796,0.226155,3.348190,0.000000,1.713366
LINE643,4.854788,-0.840732,3.507076,3.348395,3.416029,1.252837
LINE644,0.000000,0.015023,0.000000,-0.589447,0.000000,-1.510985
LINE645,0.000000,-1.270403,1.001269,3.348291,0.000000,4.624971
LINE646,0.000000,-0.718699,0.192640,3.348202,0.000000,1.442551
LINE647,0.000000,0.591875,0.226155,3.348190,0.000000,1.810592
LINE648,4.854788,-0.840732,3.507076,3.348395,3.416029,1.252837
LINE649,0.000000,3.078413,0.000000,0.142766,0.000000,4.591222
LINE650,0.000000,3.591177,1.001269,3.348291,0.000000,4.604590
LINE651,0.000000,-0.686165,0.192640,3.348202,0.000000,1.431541
LINE652,0.000000,0.733197,0.226155,3.348190,0.000000,1.919460
LINE653,4.854788,-0.840732,3.507076,3.348395,3.416029,1.252837
LINE654,0.000000,3.155503,0.000000,0.003053,0.000000,-1.481619
LINE655,0.000000,3.395510,0.821127,3.348292,0.000000,4.677932
LINE656,0.000000,-1.106981,0.180142,3.348287,0.000000,1.498262
LINE657,0.000000,-0.430144,0.192640,3.348202,0.000000,1.382074
LINE658,0.000000,0.938787,0.226155,3.348190,0.000000,1.768194
LINE659,4.854788,-0.840732,3.507076,3.348395,3.416029,1.252837
LINE660,0.000000,2.987021,0.000000,0.495909,0.000000,-1.211092
LINE661,0.000000,0.008805,0.821127,3.348292,0.000000,-1.482502
LINE662,0.000000,4.622157,0.180142,3.348287,0.000000,1.325550
LINE663,0.000000,-0.369101,0.192640,3.348202,0.000000,1.373633
LINE664,0.000000,1.185516,0.226155,3.348190,0.000000,4.525763
LINE665,4.854788,-0.840732,3.507076,3.348395,3.416029,1.252837
LINE666,0.000000,2.471932,0.000000,1.557850,0.000000,-0.892342
LINE667,0.000000,2.976651,0.821127,3.348292,0.000000,1.496457
LINE668,0.000000,-0.851061,0.180142,3.348287,0.000000,1.615123
LINE669,0.000000,-0.347371,0.192640,3.348202,0.000000,1.441454
LINE670,0.000000,0.885697,0.226155,3.348190,0.000000,-1.566360
LINE671,3.947667,-0.840710,0.000000,0.288936,0.000000,4.708745
LINE672,0.907121,-0.840829,3.507076,3.348395,3.416029,1.252837
LINE673,0.000000,-0.334183,0.000000,3.037087,0.000000,-1.194740
LINE674,0.000000,3.848456,0.821127,3.348292,0.000000,4.669247
LINE675,0.000000,2.418034,0.180142,3.348287,0.000000,3.731861
LINE676,0.000000,-0.398200,0.192640,3.348202,0.000000,1.450758
LINE677,0.000000,0.140066,0.226155,3.348190,0.000000,1.458869
LINE678,3.947667,-0.840710,0.000000,0.257841,0.000000,-1.567246
LINE679,0.907121,-0.840829,3.507076,3.348395,3.416029,1.252837
LINE680,0.000000,4.528726,0.000000,1.509968,0.000000,-1.147514
LINE681,0.000000,-0.715302,0.821127,3.348292,0.000000,1.680876
LINE682,0.000000,-0.289229,0.192640,3.348202,0.000000,1.392378
LINE683,0.000000,-0.282463,0.226155,3.348190,0.000000,1.602525
LINE684,3.947667,-0.840710,0.000000,0.245487,0.000000,-1.568583
LINE685,0.907121,-0.840829,3.507076,3.348395,3.416029,1.252837
LINE686,0.000000,-0.278113,0.192640,3.348202,0.000000,1.134347
LINE687,0.000000,3.334100,0.226155,3.348190,0.000000,4.277804
LINE688,3.947667,-0.840710,0.000000,0.261710,0.000000,-1.568686
LINE689,0.000000,4.491603,0.000000,-1.403433,0.414234,1.252828
LINE690,0.907121,-0.840829,3.507076,3.348395,3.001796,1.252838
LINE691,0.000000,-0.192023,0.192640,3.348202,0.000000,1.319240
LINE692,3.947667,-0.840710,0.000000,0.200846,0.000000,4.709886
LINE693,0.000000,4.309395,0.000000,-1.319250,0.205025,1.252828
LINE694,0.000000,-0.230046,0.000000,3.503080,0.209209,1.252828
LINE695,0.000000,-1.142266,0.121466,3.348233,0.000000,1.599006
LINE696,0.907121,-0.840829,3.385610,3.348401,3.001796,1.252838
LINE697,0.000000,-0.175489,0.192640,3.348202,0.000000,1.015192
LINE698,3.947667,-0.840710,0.000000,0.198980,0.000000,4.702351
LINE699,0.000000,3.861413,0.000000,-1.388620,0.205025,1.252828
LINE700,0.000000,3.158370,0.000000,-0.478308,0.209209,1.252828
LINE701,0.000000,-0.995424,0.121466,3.348233,0.000000,1.230702
LINE702,0.907121,-0.840829,3.385610,3.348401,3.001796,1.252838
LINE703,0.000000,-0.257897,0.192640,3.348202,0.000000,1.221239
LINE704,3.947667,-0.840710,0.000000,0.229138,0.000000,4.705379
LINE705,0.000000,3.732949,0.000000,-1.336148,0.205025,1.252828
LINE706,0.907121,-0.840829,3.385610,3.348401,3.001796,1.252838
LINE707,0.000000,2.866329,0.000000,1.168689,0.000000,-1.151797
LINE708,0.000000,-0.286157,0.192640,3.348202,0.000000,1.153515
LINE709,3.947667,-0.840710,0.000000,0.263045,0.000000,4.705889
LINE710,0.000000,4.646746,0.000000,4.088619,0.205025,1.252828
LINE711,0.480728,-0.840855,3.385610,3.348401,3.001796,1.252838
LINE712,0.426394,-0.840800,0.000000,2.259408,0.000000,1.559956
LINE713,0.000000,2.930500,0.000000,0.685681,0.000000,4.513027
LINE714,0.000000,-0.233011,0.192640,3.348202,0.000000,-0.595708
LINE715,3.947667,-0.840710,0.000000,0.250042,0.000000,4.705158
LINE716,0.000000,3.590282,0.000000,-1.186840,0.205025,1.252828
LINE717,0.480728,-0.840855,3.385610,3.348401,3.001796,1.252838
LINE718,0.426394,-0.840800,0.000000,2.418700,0.000000,1.558868
LINE719,0.000000,3.738393,0.000000,0.853842,0.000000,4.551165
LINE720,0.000000,-0.271139,0.192640,3.348202,0.000000,0.067707
LINE721,3.947667,-0.840710,0.000000,0.256128,0.000000,4.707789
LINE722,0.000000,2.805075,0.000000,-0.201845,0.205025,1.252828
LINE723,0.480728,-0.840855,0.406371,3.348394,3.001796,1.252838
LINE724,0.000000,-0.581980,2.979239,3.348402,0.000000,1.546422
LINE725,0.426394,-0.840800,0.000000,2.510741,0.000000,1.552333
LINE726,0.000000,3.452178,0.000000,0.727267,0.000000,4.605202
LINE727,0.000000,-0.192366,0.192640,3.348202,0.000000,1.147407
LINE728,3.947667,-0.840710,0.000000,0.243848,0.000000,4.706490
LINE729,0.000000,2.630461,0.000000,-0.128910,0.205025,1.252828
LINE730,0.480728,-0.840855,0.406371,3.348394,3.001796,1.252838
LINE731,0.000000,-0.596635,2.979239,3.348402,0.000000,1.546132
LINE732,0.426394,-0.840800,0.000000,2.674668,0.000000,1.562330
LINE733,0.000000,3.114011,0.000000,0.676099,0.000000,-1.520068
LINE734,0.000000,-0.195594,0.192640,3.348202,0.000000,1.480661
LINE735,3.947667,-0.840710,0.000000,0.230798,0.000000,4.706493
LINE736,0.000000,-0.221226,0.000000,-0.134721,0.205025,1.252828
LINE737,0.480728,-0.840855,0.406371,3.348394,3.001796,1.252838
LINE738,0.000000,-0.614001,2.979239,3.348402,0.000000,1.544448
LINE739,0.426394,-0.840800,0.000000,2.922723,0.000000,1.571428
LINE740,0.000000,2.725433,0.000000,0.609384,0.000000,-0.487764
LINE741,0.000000,-0.247954,0.192640,3.348202,0.000000,-1.220806
LINE742,3.947667,-0.840710,0.000000,0.281622,0.000000,4.705155
LINE743,0.000000,-0.409476,0.000000,0.197463,0.205025,1.252828
LINE744,0.480728,-0.840855,0.406371,3.348394,3.001796,1.252838
LINE745,0.000000,-0.306363,2.752984,3.348404,0.000000,-1.537398
LINE746,0.000000,-0.686102,0.226255,3.348384,0.000000,1.539917
LINE747,0.426394,-0.840800,0.000000,1.334493,0.000000,1.557684
LINE748,0.000000,3.267829,0.000000,0.527976,0.000000,-1.363945
LINE749,0.000000,-0.054397,0.192640,3.348202,0.000000,1.547356
LINE750,3.947667,-0.840710,0.000000,0.211161,0.000000,4.700895
LINE751,0.000000,0.683346,0.000000,0.435991,0.205025,1.252828
LINE752,0.480728,-0.840855,0.406371,3.348394,0.000000,-1.497608
LINE753,0.000000,-1.047300,0.000000,3.968576,3.001796,1.252838
LINE754,0.000000,4.218840,2.752984,3.348404,0.000000,4.694772
LINE755,0.000000,-1.186893,0.226255,3.348384,0.000000,1.549007
LINE756,0.426394,-0.840800,0.000000,3.025782,0.000000,1.566295
LINE757,0.000000,2.990856,0.000000,0.195131,0.000000,-0.657354
LINE758,0.000000,0.297717,0.192640,3.348202,0.000000,1.566558
LINE759,3.947667,-0.840710,0.000000,0.182962,0.000000,4.699830
LINE760,0.000000,3.327176,0.000000,0.062898,0.205025,1.252828
LINE761,0.480728,-0.840855,0.406371,3.348394,0.000000,-1.506985
LINE762,0.000000,-1.061048,0.000000,3.982096,3.001796,1.252838
LINE763,0.000000,-0.259417,0.226255,3.348384,0.000000,1.510577
LINE764,0.426394,-0.840800,0.000000,2.894698,0.000000,1.552046
LINE765,0.000000,2.927795,0.000000,0.246776,0.000000,-1.131436
LINE766,0.000000,0.286215,0.192640,3.348202,0.000000,1.903421
LINE767,3.947667,-0.840710,0.000000,0.184725,0.000000,4.692216
LINE768,0.000000,4.506251,0.000000,4.027572,0.205025,1.252828
LINE769,0.480728,-0.840855,0.406371,3.348394,0.000000,-1.514924
LINE770,0.000000,0.799681,0.000000,3.125940,1.703964,1.252841
LINE771,0.000000,-0.877006,0.000000,3.960381,1.297831,1.252835
LINE772,0.000000,0.382254,0.226255,3.348384,0.000000,1.437746
LINE773,0.426394,-0.840800,0.000000,2.714099,0.000000,1.555448
LINE774,0.000000,3.307365,0.000000,0.191261,0.000000,1.325107
LINE775,0.000000,2.182996,0.192640,3.348202,0.000000,-0.604029
LINE776,3.947667,-0.840710,0.000000,0.169830,0.000000,4.692642
LINE777,0.000000,2.005811,0.000000,2.576721,0.205025,1.252828
LINE778,0.480728,-0.840855,0.406371,3.348394,0.000000,-1.514456
LINE779,0.000000,4.266085,0.000000,3.743265,1.703964,1.252841
LINE780,0.000000,-0.919076,0.000000,4.040702,1.297831,1.252835
LINE781,0.000000,0.825019,0.226255,3.348384,0.000000,-1.038748
LINE782,0.426394,-0.840800,0.000000,2.934493,0.000000,1.552182
LINE783,0.000000,2.882294,0.000000,0.130133,0.000000,2.054875
LINE784,0.000000,-0.285733,0.192640,3.348202,0.000000,4.390476
LINE785,3.947667,-0.840710,0.000000,0.169893,0.000000,4.689854
LINE786,0.480728,-0.840855,0.406371,3.348394,0.000000,-1.511172
LINE787,0.000000,-0.882750,0.000000,3.780179,1.297831,1.252835
LINE788,0.000000,0.146587,0.226255,3.348384,0.000000,-1.299341
LINE789,0.426394,-0.840800,0.000000,3.075689,0.000000,1.546952
LINE790,0.000000,3.971983,0.000000,0.051250,0.000000,1.679168
LINE791,2.496595,-0.840707,0.000000,0.237113,0.000000,4.695402
LINE792,1.451073,-0.840715,0.000000,-0.249798,0.000000,1.523281
LINE793,0.480728,-0.840855,0.406371,3.348394,0.000000,-1.509085
LINE794,0.000000,-1.126784,0.000000,3.892983,1.297831,1.252835
LINE795,0.000000,1.310916,0.226255,3.348384,0.000000,0.962651
LINE796,0.426394,-0.840800,0.000000,2.886721,0.000000,1.548030
LINE797,0.000000,2.186153,0.000000,0.031700,0.000000,1.664828
LINE798,2.496595,-0.840707,0.000000,0.122228,0.000000,4.695656
LINE799,1.451073,-0.840715,0.000000,-1.269877,0.000000,1.566059
LINE800,0.480728,-0.840855,0.000000,-0.311223,0.000000,4.694553
LINE801,0.000000,-0.104750,0.406371,3.348394,0.000000,-0.016066
LINE802,0.000000,-1.058393,0.000000,3.902664,1.297831,1.252835
LINE803,0.000000,1.495001,0.226255,3.348384,0.000000,1.746123
LINE804,0.426394,-0.840800,0.000000,3.406978,0.000000,1.541579
LINE805,0.000000,2.644699,0.000000,0.189720,0.000000,0.660344
LINE806,2.496595,-0.840707,0.000000,0.088535,0.000000,4.695606
LINE807,1.451073,-0.840715,0.000000,-0.245279,0.000000,4.687210
LINE808,0.480728,-0.840855,0.000000,0.042872,0.000000,4.705051
LINE809,0.000000,-0.343842,0.406371,3.348394,0.000000,0.399756
LINE810,0.000000,-0.201681,0.000000,-0.201681,0.000000,2.996186
LINE811,0.000000,-1.102968,0.000000,3.529179,1.297831,1.252835
LINE812,0.000000,-1.065666,0.226255,3.348384,0.000000,1.711798
LINE813,0.426394,-0.840800,0.000000,3.116554,0.000000,1.544749
LINE814,0.000000,0.412410,0.000000,1.202863,0.000000,1.832959
LINE815,2.496595,-0.840707,0.000000,0.253213,0.000000,4.688251
LINE816,1.451073,-0.840715,0.000000,4.166985,0.000000,1.589871
LINE817,0.480728,-0.840855,0.000000,0.150689,0.000000,4.704782
LINE818,0.000000,-0.310134,0.406371,3.348394,0.000000,0.435302
LINE819,0.000000,3.721571,0.000000,2.303371,0.000000,2.411897
LINE820,0.000000,0.661554,0.000000,2.146227,1.297831,1.252835
LINE821,0.426394,-0.840800,0.000000,3.276317,0.000000,1.521514
LINE822,0.000000,0.183289,0.000000,2.321635,0.000000,1.653484
LINE823,2.496595,-0.840707,0.000000,0.154591,0.000000,4.687387
LINE824,0.480728,-0.840855,0.000000,0.272249,0.000000,4.709252
LINE825,0.000000,-0.343298,0.406371,3.348394,0.000000,0.514282
LINE826,0.000000,3.776161,0.000000,2.926406,0.000000,1.836547
LINE827,0.000000,1.028203,0.000000,-1.008716,1.297831,1.252835
LINE828,0.426394,-0.840800,0.000000,3.284054,0.000000,1.533302
LINE829,0.000000,1.950011,0.000000,4.333796,0.000000,0.847369
LINE830,2.496595,-0.840707,0.000000,0.259946,0.000000,4.707047
LINE831,0.480728,-0.840855,0.000000,0.250416,0.000000,4.698340
LINE832,0.000000,-0.266050,0.406371,3.348394,0.000000,0.606537
LINE833,0.000000,3.090441,0.000000,3.040469,0.000000,3.313149
LINE834,0.000000,-0.353362,0.000000,2.014584,1.297831,1.252835
LINE835,0.426394,-0.840800,0.000000,3.268440,0.000000,1.531792
LINE836,2.496595,-0.840707,0.000000,0.495464,0.000000,-1.568541
LINE837,0.480728,-0.840855,0.000000,0.319363,0.000000,4.699053
LINE838,0.000000,-0.193026,0.406371,3.348394,0.000000,0.617675
LINE839,0.000000,-0.782498,0.000000,0.204338,0.000000,3.631032
LINE840,0.426394,-0.840800,0.000000,3.284577,0.000000,1.532355
LINE841,2.496595,-0.840707,0.000000,0.028470,0.000000,4.705051
LINE842,0.480728,-0.840855,0.000000,0.276754,0.000000,4.698252
LINE843,0.000000,-0.474489,0.406371,3.348394,0.000000,4.481021
LINE844,0.000000,-0.198320,0.000000,-0.211492,0.000000,0.726987
LINE845,0.000000,2.939912,0.000000,2.939912,0.000000,-0.145406
LINE846,0.426394,-0.840800,0.000000,3.241386,0.000000,1.530074
LINE847,2.496595,-0.840707,0.000000,3.551998,0.000000,1.472919
LINE848,0.480728,-0.840855,0.000000,0.315130,0.000000,4.702003
LINE849,0.000000,-0.711020,0.406371,3.348394,0.000000,3.074074
LINE850,0.000000,-0.227474,0.000000,-0.242822,0.000000,0.335427
LINE851,0.000000,2.985101,0.000000,-0.160471,0.000000,2.996186
LINE852,0.426394,-0.840800,0.000000,3.288269,0.000000,1.536448
LINE853,2.496595,-0.840707,0.000000,0.395737,0.000000,1.022174
LINE854,0.480728,-0.840855,0.000000,0.328536,0.000000,4.705045
LINE855,0.000000,-0.418963,0.406371,3.348394,0.000000,1.616801
LINE856,0.000000,-0.149776,0.000000,-0.260824,0.000000,0.264622
LINE857,0.000000,0.512643,0.000000,0.512643,0.000000,4.671916
LINE858,0.426394,-0.840800,0.000000,3.078205,0.000000,1.551395
LINE859,0.221626,-0.840724,0.000000,0.145251,0.000000,4.653898
LINE860,2.274969,-0.840705,0.000000,3.105973,0.000000,1.840337
LINE861,0.480728,-0.840855,0.000000,0.316368,0.000000,4.706447
LINE862,0.000000,-0.472410,0.406371,3.348394,0.000000,1.781061
LINE863,0.000000,-0.153420,0.000000,-0.278771,0.000000,0.706066
LINE864,0.000000,-1.431739,0.000000,3.777509,0.000000,1.200258
LINE865,0.426394,-0.840800,0.000000,2.348888,0.000000,1.546059
LINE866,0.480728,-0.840855,0.000000,0.329018,0.000000,4.706588
LINE867,0.000000,4.644870,0.406371,3.348394,0.000000,1.596028
LINE868,0.000000,0.225701,0.000000,-0.103742,0.000000,-0.229238
LINE869,0.000000,0.668354,0.000000,-1.406180,0.000000,0.319808
LINE870,0.426394,-0.840800,0.000000,1.600217,0.000000,1.561918
LINE871,0.480728,-0.840855,0.000000,0.326625,0.000000,4.704387
LINE872,0.000000,4.644870,0.209470,3.348394,0.000000,1.525979
LINE873,0.000000,3.074074,0.196901,3.348393,0.000000,-1.350625
LINE874,0.000000,0.250940,0.000000,-1.163446,0.000000,1.337920
LINE875,0.000000,0.635983,0.000000,-0.450771,0.000000,2.320628
LINE876,0.426394,-0.840800,0.000000,1.590709,0.000000,1.547604
LINE877,0.480728,-0.840855,0.000000,0.331679,0.000000,4.704440
LINE878,0.000000,-0.852917,0.209470,3.348394,0.000000,1.550281
LINE879,0.000000,4.644870,0.196901,3.348393,0.000000,1.492536
LINE880,0.000000,2.939912,0.000000,2.939912,0.000000,-0.145406
LINE881,0.000000,4.692147,0.000000,-0.612022,0.000000,-0.266649
LINE882,0.426394,-0.840800,0.000000,1.898491,0.000000,1.555149
LINE883,0.480728,-0.840855,0.000000,0.329661,0.000000,4.704687
LINE884,0.000000,1.503278,0.209470,3.348394,0.000000,4.654147
LINE885,0.000000,0.000000,0.196901,3.348393,0.000000,3.074074
LINE886,0.426394,-0.840800,0.000000,1.922154,0.000000,1.450174
LINE887,0.250815,-0.840855,0.000000,0.325818,0.000000,4.707226
LINE888,0.229913,-0.840855,0.000000,3.498141,0.000000,4.286880
LINE889,0.000000,1.503278,0.209470,3.348394,0.000000,4.653415
LINE890,0.426394,-0.840800,0.000000,3.505791,0.000000,2.015631
LINE891,0.250815,-0.840855,0.000000,0.327892,0.000000,4.708939
LINE892,0.229913,-0.840855,0.000000,3.948709,0.000000,1.234159
LINE893,0.000000,2.091280,0.209470,3.348394,0.000000,4.628270
LINE894,0.225738,-0.840800,0.000000,-0.525273,0.000000,1.505787
LINE895,0.200655,-0.840801,0.000000,-0.147822,0.000000,1.506003
LINE896,0.250815,-0.840855,0.000000,0.462404,0.000000,4.701621
LINE897,0.229913,-0.840855,0.000000,2.796583,0.000000,1.768059
LINE898,0.000000,0.000000,0.209470,3.348394,0.000000,-0.067519
LINE899,0.225738,-0.840800,0.000000,-0.261642,0.000000,1.995080
LINE900,0.250815,-0.840855,0.000000,0.484562,0.000000,-1.564612
LINE901,0.250815,-0.840855,0.000000,0.427968,0.000000,4.696540
LINE902,0.250815,-0.840855,0.000000,1.915887,0.000000,4.687336
LINE903,0.250815,-0.840855,0.000000,1.597212,0.000000,4.621204
LINE904,0.250815,-0.840855,0.000000,-0.325915,0.000000,-1.066399
LINE905,0.250815,-0.840855,0.000000,2.069457,0.000000,4.615038
